Version 4
SHEET 1 880 680
SYMBOL res 128 0 R0
SYMATTR InstName Resistor1
SYMATTR Value 100R
SYMATTR SpiceLine tol=25 pwr=1
SYMBOL res 128 -80 R0
SYMATTR InstName R1
